/*---------------------------------------------------------------------------*\
| =========                 |                                                 |
| \\      /  F ield         | OpenFOAM: The Open Source CFD Toolbox           |
|  \\    /   O peration     | Version:  1.4                                   |
|   \\  /    A nd           | Web:      http://www.openfoam.org               |
|    \\/     M anipulation  |                                                 |
\*---------------------------------------------------------------------------*/

FoamFile
{
    version         2.0;
    format          ascii;

    root            "";
    case            "";
    instance        "";
    local           "";

    class           dictionary;
    object          fvSolution;
}

// * * * * * * * * * * * * * * * * * * * * * * * * * * * * * * * * * * * * * //

solvers
{
    rho PCG
    {
        preconditioner
        {
            type        DIC;
        }

        minIter          0;
        maxIter          2000;
        tolerance        1e-05;
        relTol           0;
    };
    U PBiCG
    {
        preconditioner
        {
            type        DILU;
        }

        minIter          0;
        maxIter          500;
        tolerance        1e-05;
        relTol           0;
    };
    p PCG
    {
        preconditioner
        {
            type        DIC;
        }

        minIter          0;
        maxIter          2000;
        tolerance        1e-06;
        relTol           0;
    };
    ft PBiCG
    {
        preconditioner
        {
            type        DILU;
        }

        minIter          0;
        maxIter          500;
        tolerance        1e-05;
        relTol           0;
    };
    fu PBiCG
    {
        preconditioner
        {
            type        DILU;
        }

        minIter          0;
        maxIter          500;
        tolerance        1e-05;
        relTol           0;
    };
    b PBiCG
    {
        preconditioner
        {
            type        DILU;
        }

        minIter          0;
        maxIter          500;
        tolerance        1e-05;
        relTol           0;
    };
    Xi PBiCG
    {
        preconditioner
        {
            type        DILU;
        }

        minIter          0;
        maxIter          500;
        tolerance        1e-05;
        relTol           0;
    };
    Su PBiCG
    {
        preconditioner
        {
            type        DILU;
        }

        minIter          0;
        maxIter          500;
        tolerance        1e-05;
        relTol           0;
    };
    h PBiCG
    {
        preconditioner
        {
            type        DILU;
        }

        minIter          0;
        maxIter          500;
        tolerance        1e-05;
        relTol           0;
    };
    hu PBiCG
    {
        preconditioner
        {
            type        DILU;
        }

        minIter          0;
        maxIter          500;
        tolerance        1e-05;
        relTol           0;
    };
    R PBiCG
    {
        preconditioner
        {
            type        DILU;
        }

        minIter          0;
        maxIter          500;
        tolerance        1e-05;
        relTol           0;
    };
    k PBiCG
    {
        preconditioner
        {
            type        DILU;
        }

        minIter          0;
        maxIter          500;
        tolerance        1e-05;
        relTol           0;
    };
    epsilon PBiCG
    {
        preconditioner
        {
            type        DILU;
        }

        minIter          0;
        maxIter          500;
        tolerance        1e-05;
        relTol           0;
    };
}

PISO
{
    nCorrectors     2;
    nNonOrthogonalCorrectors 0;
}


// ************************************************************************* //
