/*--------------------------------*- C++ -*----------------------------------*\
| =========                 |                                                 |
| \\      /  F ield         | OpenFOAM: The Open Source CFD Toolbox           |
|  \\    /   O peration     | Version:  1.5-dev                               |
|   \\  /    A nd           | Web:      http://www.openfoam.org               |
|    \\/     M anipulation  |                                                 |
\*---------------------------------------------------------------------------*/

FoamFile
{
    version         2.0;
    format          ascii;
    class           dictionary;
    object          fvSolution;
}

// * * * * * * * * * * * * * * * * * * * * * * * * * * * * * * * * * * * * * //

solvers
{
    p CG
    {
        preconditioner   DIC;
        tolerance        1e-06;
        relTol           0;
    };

    U BiCGStab
    {
        preconditioner   DILU;
        tolerance        1e-05;
        relTol           0;
    };

//      T+T smoothSolver
//      {
// //          smoother     GaussSeidel;
//          smoother     ILU;
//          nSweeps      10;

//          minIter      0;
//          maxIter      1000;
//          tolerance    1e-6;
//          relTol       0.0;
//      };

    T+T BiCGStab
    {
        preconditioner
        {
            type                Cholesky;
//             type                GaussSeidel;
//             type                diagonal;
        }

         minIter      0;
         maxIter      1000;
         tolerance    1e-6;
         relTol       0.0;
    };
}

PISO
{
    nCorrectors     2;
    nNonOrthogonalCorrectors 0;
    pRefCell        0;
    pRefValue       0;
}


// ************************************************************************* //
