/*---------------------------------------------------------------------------*\
| =========                 |                                                 |
| \\      /  F ield         | OpenFOAM: The Open Source CFD Toolbox           |
|  \\    /   O peration     | Version:  1.4                                   |
|   \\  /    A nd           | Web:      http://www.openfoam.org               |
|    \\/     M anipulation  |                                                 |
\*---------------------------------------------------------------------------*/

FoamFile
{
    version         2.0;
    format          ascii;

    root            "";
    case            "";
    instance        "";
    local           "";

    class           dictionary;
    object          fvSolution;
}

// * * * * * * * * * * * * * * * * * * * * * * * * * * * * * * * * * * * * * //

solvers
{
    pd PCG
    {
        preconditioner
        {
            type        DIC;
        }

        minIter          0;
        maxIter          2000;
        tolerance        1e-08;
        relTol           0;
    };
    U PBiCG
    {
        preconditioner
        {
            type        DILU;
        }

        minIter          0;
        maxIter          500;
        tolerance        1e-05;
        relTol           0;
    };
    h PBiCG
    {
        preconditioner
        {
            type        DILU;
        }

        minIter          0;
        maxIter          500;
        tolerance        1e-05;
        relTol           0;
    };
    k PBiCG
    {
        preconditioner
        {
            type        DILU;
        }

        minIter          0;
        maxIter          500;
        tolerance        1e-05;
        relTol           0;
    };
    epsilon PBiCG
    {
        preconditioner
        {
            type        DILU;
        }

        minIter          0;
        maxIter          500;
        tolerance        1e-05;
        relTol           0;
    };
    R PBiCG
    {
        preconditioner
        {
            type        DILU;
        }

        minIter          0;
        maxIter          500;
        tolerance        1e-05;
        relTol           0;
    };
}

SIMPLE
{
    nNonOrthogonalCorrectors 0;
    pdRefCell        0;
    pdRefValue       0;
}

relaxationFactors
{
    rho             1.0;
    pd              0.3;
    U               0.7;
    h               0.7;
    k               0.7;
    epsilon         0.7;
    R               0.7;
}


// ************************************************************************* //
