/*---------------------------------------------------------------------------*\
| =========                 |                                                 |
| \\      /  F ield         | OpenFOAM: The Open Source CFD Toolbox           |
|  \\    /   O peration     | Version:  1.4                                   |
|   \\  /    A nd           | Web:      http://www.openfoam.org               |
|    \\/     M anipulation  |                                                 |
\*---------------------------------------------------------------------------*/

FoamFile
{
    version 2.0;
    format ascii;

    root "nonNewtonianIcoFoam";
    case "offsetCylinder";
    instance ""constant"";
    local "polyMesh";

    class polyBoundaryMesh;
    object boundary;
}

// * * * * * * * * * * * * * * * * * * * * * * * * * * * * * * * * * * * * * //

6
(
left
{
    type patch;
    physicalType inlet;
    nFaces 35;
    startFace 3485;
}

right
{
    type patch;
    physicalType outlet;
    nFaces 35;
    startFace 3520;
}

down
{
    type wall;
    physicalType wall;
    nFaces 40;
    startFace 3555;
}

up
{
    type wall;
    physicalType wall;
    nFaces 40;
    startFace 3595;
}

cylinder
{
    type wall;
    physicalType wall;
    nFaces 80;
    startFace 3635;
}

defaultFaces
{
    type empty;
    nFaces 3600;
    startFace 3715;
}
)

// ************************************************************************* //
