/*---------------------------------------------------------------------------*\
| =========                 |                                                 |
| \\      /  F ield         | OpenFOAM: The Open Source CFD Toolbox           |
|  \\    /   O peration     | Version:  1.4                                   |
|   \\  /    A nd           | Web:      http://www.openfoam.org               |
|    \\/     M anipulation  |                                                 |
\*---------------------------------------------------------------------------*/

FoamFile
{
    version 2.0;
    format ascii;

    root "";
    case "";
    instance ""constant"";
    local "";

    class polyBoundaryMesh;
    object boundary;
}

// * * * * * * * * * * * * * * * * * * * * * * * * * * * * * * * * * * * * * //

2
(
sides
{
    type patch;
    physicalType extrapolatedOutlet;
    nFaces 2;
    startFace 999;
}

empty
{
    type empty;
    physicalType empty;
    nFaces 4000;
    startFace 1001;
}
)

// ************************************************************************* //
