/*---------------------------------------------------------------------------*\
| =========                 |                                                 |
| \\      /  F ield         | OpenFOAM: The Open Source CFD Toolbox           |
|  \\    /   O peration     | Version:  1.4                                   |
|   \\  /    A nd           | Web:      http://www.openfoam.org               |
|    \\/     M anipulation  |                                                 |
\*---------------------------------------------------------------------------*/

FoamFile
{
    version         2.0;
    format          ascii;

    root            "";
    case            "";
    instance        "";
    local           "";

    class           volScalarField;
    object          epsilon;
}

// * * * * * * * * * * * * * * * * * * * * * * * * * * * * * * * * * * * * * //
dimensions      [0 2 -3 0 0 0 0];

internalField   uniform 200;

boundaryField
{

    front
    {
        type            zeroGradient;
    }
    back
    {
        type            zeroGradient;
    }
    wall
    {
        type            zeroGradient;
    }
    porosityWall
    {
        type            zeroGradient;
    }

    inlet
    {
        type            turbulentMixingLengthDissipationRateInlet;
        mixingLength    0.005;
        value           uniform 200;
    }

    outlet
    {
        type            inletOutlet;
        inletValue      uniform 200;
        value           uniform 200;
    }

}
// ************************************************************************* //
