/*---------------------------------------------------------------------------*\
| =========                 |                                                 |
| \\      /  F ield         | OpenFOAM: The Open Source CFD Toolbox           |
|  \\    /   O peration     | Version:  1.4                                   |
|   \\  /    A nd           | Web:      http://www.openfoam.org               |
|    \\/     M anipulation  |                                                 |
\*---------------------------------------------------------------------------*/

FoamFile
{
    version         2.0;
    format          ascii;

    root            "";
    case            "";
    instance        "";
    local           "";

    class           dictionary;
    object          fvSolution;
}

// * * * * * * * * * * * * * * * * * * * * * * * * * * * * * * * * * * * * * //

solvers
{
    p PCG
    {
        preconditioner
        {
            type        DIC;
        }

        minIter          0;
        maxIter          2000;
        tolerance        1e-10;
        relTol           0;
    };
    Ua PBiCG
    {
        preconditioner
        {
            type        DILU;
        }

        minIter          0;
        maxIter          500;
        tolerance        1e-05;
        relTol           0;
    };
    Ub PBiCG
    {
        preconditioner
        {
            type        DILU;
        }

        minIter          0;
        maxIter          500;
        tolerance        1e-05;
        relTol           0;
    };
    alpha PBiCG
    {
        preconditioner
        {
            type        DILU;
        }

        minIter          0;
        maxIter          500;
        tolerance        1e-10;
        relTol           0;
    };
    beta PBiCG
    {
        preconditioner
        {
            type        DILU;
        }

        minIter          0;
        maxIter          500;
        tolerance        1e-10;
        relTol           0;
    };
    k PBiCG
    {
        preconditioner
        {
            type        DILU;
        }

        minIter          0;
        maxIter          500;
        tolerance        1e-05;
        relTol           0;
    };
    epsilon PBiCG
    {
        preconditioner
        {
            type        DILU;
        }

        minIter          0;
        maxIter          500;
        tolerance        1e-05;
        relTol           0;
    };
}

PISO
{
    nCorrectors     2;
    nNonOrthogonalCorrectors 0;
    nAlphaCorr      2;
    correctAlpha    no;
    pRefCell        0;
    pRefValue       0;
}


// ************************************************************************* //
